Version 4
SHEET 1 880 680
SYMBOL cap 128 64 R0
SYMATTR InstName C1
